Version 4
SHEET 1 880 680
WIRE 272 64 176 64
WIRE 112 112 112 48
WIRE 128 112 112 112
WIRE 176 112 176 64
WIRE 272 112 272 64
WIRE 112 160 -64 160
WIRE 336 160 192 160
WIRE 416 160 336 160
WIRE 576 160 496 160
WIRE 704 160 576 160
WIRE 336 192 336 160
WIRE 576 192 576 160
WIRE 704 192 704 160
WIRE -64 256 -64 160
WIRE 336 304 336 256
WIRE 544 304 336 304
WIRE 576 304 576 256
WIRE 576 304 544 304
WIRE 704 304 704 272
WIRE 704 304 576 304
WIRE -64 368 -64 336
WIRE 544 368 544 304
FLAG -64 368 0
FLAG 544 368 0
FLAG 272 112 0
FLAG 112 -32 0
SYMBOL voltage -64 240 R0
SYMATTR InstName V1
SYMATTR Value 20
SYMBOL diode 352 256 R180
WINDOW 0 24 64 Left 2
WINDOW 3 24 0 Left 2
SYMATTR InstName D1
SYMBOL ind 400 176 R270
WINDOW 0 32 56 VTop 2
WINDOW 3 5 56 VBottom 2
SYMATTR InstName L1
SYMATTR Value 100µ
SYMBOL cap 560 192 R0
SYMATTR InstName C1
SYMATTR Value 25µ
SYMBOL res 688 176 R0
SYMATTR InstName R1
SYMATTR Value 100
SYMBOL voltage 112 64 R180
WINDOW 0 24 96 Left 2
WINDOW 3 24 16 Left 2
WINDOW 123 0 0 Left 0
WINDOW 39 0 0 Left 0
SYMATTR InstName V2
SYMATTR Value PULSE(0 1 0 1n 1n 10u 50u)
SYMBOL sw 208 160 R90
SYMATTR InstName S1
SYMATTR Value MYSW
TEXT 144 488 Left 2 !.MODEL MYSW sw(Ron=0.1 Roff=1meg Vt=0.5)
TEXT -240 512 Left 2 !.tran 0 10m 0 0.001m
